6
Coordinates from ORCA-job input E -699.059016387120
  Li         -3.48123833924659      2.94792603547022     -1.70651647920000
  F          -1.75894983459213      5.86628105178845     -0.74431350725351
  O          -0.96827110806823      3.72304817790567      0.17769453646438
  P          -2.50296554947500      4.56080448578364     -0.17237934069674
  F          -3.74878867689114      5.51068463702191      0.41441315938452
  O          -1.90079024262689      4.23163055683005      1.28266370860136
