! Opt B3LYP def2-TZVP TightSCF TightOpt D3BJ RIJCOSX

%maxcore 5000

%pal
nprocs 32
end

* xyz 0 1
F         -1.73320        0.68190       -0.74970
O          0.06590        0.89910        0.56450
O          0.48020       -1.13660       -0.30030
O          2.16930        0.41450       -0.21450
C         -1.18080        0.24700        0.41100
C         -0.81200       -1.19520        0.29280
C          1.01050        0.08940       -0.00390
H         -1.86370        0.46440        1.23610
H         -0.71650       -1.68710        1.26590
H         -1.49640       -1.75840       -0.34660
*
