13
Coordinates from ORCA-job input E -704.440372679475
  O       0.003400      0.994600     -1.258800
  H       2.735000      0.770400     -0.000900
  H      -2.741200      0.768900     -0.000600
  S      -0.007800      0.263200     -0.000200
  C       2.563900     -0.300600      0.000300
  C      -2.564800     -0.301300      0.000400
  C       1.338800     -0.829100      0.000900
  H       3.434800     -0.947500      0.001000
  C      -1.337300     -0.824700      0.001000
  H      -3.432900     -0.952000      0.001100
  H       1.191200     -1.902700      0.002000
  H      -1.191000     -1.898600      0.002000
  O       0.003700      0.998000      1.256400
13
Coordinates from ORCA-job input E -704.444747207386
  O      -0.000831      1.015505     -1.260013
  H       2.784105      0.758304      0.000692
  H      -2.788425      0.757715      0.002748
  S      -0.003802      0.271529     -0.001615
  C       2.606494     -0.311044      0.001420
  C      -2.606457     -0.310929      0.001901
  C       1.379221     -0.826135      0.000960
  H       3.473069     -0.961864      0.002542
  C      -1.376689     -0.822132      0.000487
  H      -3.470770     -0.964661      0.002260
  H       1.215556     -1.896662      0.001282
  H      -1.214525     -1.892653     -0.001184
  O      -0.001145      1.021626      1.253120
13
Coordinates from ORCA-job input E -704.446371331125
  O      -0.000916      1.047223     -1.266428
  H       2.825813      0.739110      0.003344
  H      -2.828745      0.738290      0.008036
  S      -0.000749      0.298772     -0.004284
  C       2.632476     -0.327929      0.003153
  C      -2.632561     -0.328181      0.004021
  C       1.400411     -0.818839      0.000348
  H       3.489134     -0.991189      0.005546
  C      -1.398948     -0.816430     -0.001361
  H      -3.487567     -0.993472      0.004929
  H       1.197096     -1.883564      0.000260
  H      -1.197184     -1.881499     -0.005346
  O      -0.002459      1.056308      1.252383
13
Coordinates from ORCA-job input E -704.446623215320
  O       0.000889      1.059228     -1.273720
  H       2.838831      0.729472      0.007327
  H      -2.841110      0.728248      0.016230
  S       0.000025      0.314496     -0.008135
  C       2.637293     -0.336178      0.005938
  C      -2.637780     -0.337019      0.007516
  C       1.402124     -0.815405     -0.000229
  H       3.488989     -1.006171      0.009923
  C      -1.401822     -0.814457     -0.003720
  H      -3.488315     -1.008442      0.008542
  H       1.172877     -1.874607     -0.001591
  H      -1.173836     -1.873982     -0.012422
  O      -0.002365      1.073417      1.248940
13
Coordinates from ORCA-job input E -704.446693598707
  O       0.003370      1.057876     -1.286521
  H       2.840609      0.725749      0.016797
  H      -2.842191      0.724187      0.035183
  S       0.000069      0.321167     -0.016811
  C       2.636439     -0.339380      0.012357
  C      -2.637120     -0.340603      0.015427
  C       1.399990     -0.814403     -0.001698
  H       3.486544     -1.011623      0.020134
  C      -1.400431     -0.814496     -0.009247
  H      -3.486552     -1.013728      0.017014
  H       1.155721     -1.869897     -0.006289
  H      -1.156998     -1.870048     -0.029180
  O      -0.003649      1.083799      1.237434
13
Coordinates from ORCA-job input E -704.446764125290
  O       0.008604      1.041888     -1.319182
  H       2.837080      0.725023      0.043158
  H      -2.836849      0.722326      0.086641
  S      -0.000122      0.322968     -0.040379
  C       2.633716     -0.340153      0.029948
  C      -2.634205     -0.341918      0.036868
  C       1.397577     -0.814629     -0.005943
  H       3.484073     -1.012045      0.047923
  C      -1.398788     -0.815464     -0.024333
  H      -3.484697     -1.013899      0.040111
  H       1.143611     -1.867456     -0.019713
  H      -1.145787     -1.867409     -0.074759
  O      -0.008412      1.099370      1.204261
13
Coordinates from ORCA-job input E -704.446947848699
  O       0.016259      1.017192     -1.367470
  H       2.832325      0.725193      0.082815
  H      -2.828004      0.719009      0.163390
  S      -0.000236      0.323234     -0.075421
  C       2.630820     -0.340080      0.056294
  C      -2.630474     -0.343145      0.068826
  C       1.396269     -0.814818     -0.012147
  H       3.481443     -1.011143      0.089176
  C      -1.398761     -0.815780     -0.046599
  H      -3.482608     -1.013122      0.074283
  H       1.138058     -1.866222     -0.040020
  H      -1.143760     -1.863913     -0.142804
  O      -0.015532      1.122193      1.154277
13
Coordinates from ORCA-job input E -704.447515174748
  O       0.029841      0.974474     -1.450808
  H       2.821248      0.725035      0.152567
  H      -2.804794      0.707632      0.295895
  S      -0.000296      0.324896     -0.136485
  C       2.623271     -0.340037      0.102390
  C      -2.620338     -0.347185      0.124271
  C       1.393253     -0.814339     -0.022971
  H       3.473209     -1.010353      0.161063
  C      -1.399476     -0.814950     -0.084756
  H      -3.475646     -1.013242      0.134002
  H       1.129276     -1.863142     -0.076353
  H      -1.146748     -1.853089     -0.260380
  O      -0.027002      1.162899      1.066165
13
Coordinates from ORCA-job input E -704.448177761185
  O       0.038359      0.938581     -1.507858
  H       2.808275      0.727780      0.203480
  H      -2.778884      0.698174      0.391137
  S      -0.000457      0.321251     -0.178104
  C       2.616178     -0.337302      0.134533
  C      -2.610215     -0.348424      0.162491
  C       1.391738     -0.814382     -0.029529
  H       3.466779     -1.005187      0.208666
  C      -1.400973     -0.813938     -0.109831
  H      -3.470217     -1.008400      0.171162
  H       1.134759     -1.863948     -0.101582
  H      -1.164218     -1.844686     -0.342929
  O      -0.035323      1.189081      1.002963
13
Coordinates from ORCA-job input E -704.448702919583
  O       0.043238      0.912654     -1.544732
  H       2.797637      0.730222      0.238313
  H      -2.757638      0.690686      0.453574
  S      -0.000704      0.317580     -0.204727
  C       2.610657     -0.334791      0.155664
  C      -2.602182     -0.349009      0.187247
  C       1.390720     -0.814328     -0.033834
  H       3.461999     -1.000601      0.238783
  C      -1.402137     -0.812965     -0.125836
  H      -3.466183     -1.003664      0.194292
  H       1.141234     -1.864928     -0.118765
  H      -1.179942     -1.838013     -0.396399
  O      -0.040899      1.205758      0.961020
13
Coordinates from ORCA-job input E -704.449122454342
  O       0.046588      0.892640     -1.572035
  H       2.788765      0.731945      0.265044
  H      -2.740006      0.684222      0.499215
  S      -0.000942      0.314818     -0.224368
  C       2.605980     -0.332897      0.171570
  C      -2.595491     -0.349695      0.205615
  C       1.389774     -0.814093     -0.037207
  H       3.457862     -0.997155      0.260923
  C      -1.402997     -0.812043     -0.137600
  H      -3.462719     -1.000026      0.211690
  H       1.145872     -1.865237     -0.132321
  H      -1.192064     -1.832023     -0.435507
  O      -0.044822      1.218143      0.929580
13
Coordinates from ORCA-job input E -704.449554399581
  O       0.050006      0.873175     -1.599547
  H       2.779284      0.733148      0.292260
  H      -2.721416      0.676712      0.543573
  S      -0.001148      0.312951     -0.244445
  C       2.600656     -0.331373      0.187796
  C      -2.588146     -0.351030      0.224100
  C       1.388451     -0.813642     -0.040963
  H       3.452818     -0.994343      0.283674
  C      -1.403796     -0.810960     -0.149390
  H      -3.458443     -0.997230      0.230416
  H       1.148464     -1.864710     -0.146851
  H      -1.202771     -1.824908     -0.473826
  O      -0.048160      1.230808      0.897802
13
Coordinates from ORCA-job input E -704.450218180245
  O       0.055502      0.845882     -1.641356
  H       2.763756      0.733918      0.333767
  H      -2.691965      0.663697      0.607546
  S      -0.001301      0.312053     -0.275871
  C       2.591284     -0.329875      0.212879
  C      -2.575723     -0.354279      0.252165
  C       1.385787     -0.812746     -0.047578
  H       3.443313     -0.991366      0.319850
  C      -1.404960     -0.809101     -0.167349
  H      -3.450122     -0.994938      0.261917
  H       1.148553     -1.862532     -0.170734
  H      -1.216291     -1.812438     -0.529910
  O      -0.052033      1.250327      0.849274
13
Coordinates from ORCA-job input E -704.451247303780
  O       0.063234      0.805875     -1.703725
  H       2.736031      0.734326      0.398582
  H      -2.642862      0.642503      0.698286
  S      -0.001369      0.311285     -0.324031
  C       2.574493     -0.327877      0.251563
  C      -2.554184     -0.359896      0.294021
  C       1.381358     -0.811273     -0.059398
  H       3.426103     -0.986947      0.376014
  C      -1.406978     -0.805702     -0.194156
  H      -3.434450     -0.992402      0.313156
  H       1.148830     -1.858305     -0.211120
  H      -1.238216     -1.791607     -0.610254
  O      -0.056191      1.278620      0.775661
13
Coordinates from ORCA-job input E -704.452801958832
  O       0.072284      0.745951     -1.795396
  H       2.682780      0.733074      0.502711
  H      -2.558708      0.609129      0.822282
  S      -0.001260      0.309831     -0.396861
  C       2.543063     -0.325133      0.311352
  C      -2.515767     -0.368711      0.355247
  C       1.374517     -0.808775     -0.081168
  H       3.394288     -0.979505      0.461509
  C      -1.410360     -0.799370     -0.232177
  H      -3.404220     -0.988933      0.395000
  H       1.154457     -1.850025     -0.282486
  H      -1.276574     -1.757312     -0.719893
  O      -0.058702      1.318380      0.664479
13
Coordinates from ORCA-job input E -704.455107218952
  O       0.080553      0.648298     -1.920634
  H       2.577114      0.728893      0.664515
  H      -2.409620      0.555938      0.987832
  S      -0.001067      0.298789     -0.498160
  C       2.485753     -0.318452      0.398852
  C      -2.448116     -0.379050      0.439607
  C       1.366185     -0.804599     -0.115124
  H       3.340611     -0.960362      0.579053
  C      -1.417002     -0.785795     -0.284569
  H      -3.350734     -0.975615      0.510611
  H       1.194037     -1.837078     -0.395131
  H      -1.363303     -1.698640     -0.866192
  O      -0.058610      1.366274      0.503939
13
Coordinates from ORCA-job input E -704.457540157990
  O       0.077332      0.510468     -2.075023
  H       2.378206      0.699112      0.899944
  H      -2.187421      0.488807      1.159092
  S       0.000046      0.278801     -0.627596
  C       2.385190     -0.315318      0.516943
  C      -2.341527     -0.389903      0.542351
  C       1.361863     -0.794366     -0.174650
  H       3.251254     -0.931714      0.729272
  C      -1.426227     -0.760073     -0.341219
  H      -3.257655     -0.955638      0.668935
  H       1.294527     -1.798294     -0.578278
  H      -1.497059     -1.611028     -1.009302
  O      -0.042730      1.417745      0.294130
13
Coordinates from ORCA-job input E -704.458361967282
  O       0.062819      0.402332     -2.227623
  H       2.122184      0.623154      1.118708
  H      -1.972372      0.446801      1.268008
  S       0.003752      0.286782     -0.767380
  C       2.246294     -0.339234      0.634556
  C      -2.215128     -0.402820      0.639218
  C       1.363172     -0.773273     -0.250537
  H       3.111464     -0.936261      0.901852
  C      -1.424338     -0.738550     -0.367772
  H      -3.119303     -0.961986      0.854380
  H       1.379505     -1.707538     -0.796933
  H      -1.552009     -1.542102     -1.081071
  O      -0.010240      1.481296      0.079195
13
Coordinates from ORCA-job input E -704.458701859337
  O       0.047410      0.342437     -2.254145
  H       2.025081      0.584381      1.191795
  H      -1.919742      0.447291      1.289663
  S       0.004479      0.259860     -0.788056
  C       2.208120     -0.344896      0.663436
  C      -2.186451     -0.394321      0.659689
  C       1.380041     -0.758105     -0.285334
  H       3.085662     -0.923891      0.926988
  C      -1.432082     -0.711204     -0.384833
  H      -3.085619     -0.953721      0.889545
  H       1.512803     -1.668002     -0.860989
  H      -1.648388     -1.513274     -1.082121
  O       0.004486      1.472044      0.038962
13
Coordinates from ORCA-job input E -704.459040508595
  O       0.044753      0.377377     -2.242930
  H       2.065126      0.592728      1.165424
  H      -1.969147      0.473025      1.261153
  S       0.004790      0.272879     -0.779506
  C       2.223674     -0.349494      0.652429
  C      -2.205737     -0.389986      0.648232
  C       1.382111     -0.760122     -0.284717
  H       3.091899     -0.940952      0.920174
  C      -1.425910     -0.724269     -0.369883
  H      -3.098494     -0.959733      0.879397
  H       1.473554     -1.675556     -0.857569
  H      -1.591722     -1.548296     -1.053838
  O       0.000903      1.470999      0.066234
13
Coordinates from ORCA-job input E -704.459124474781
  O       0.033237      0.391749     -2.237231
  H       2.066349      0.579783      1.171035
  H      -2.003561      0.502673      1.234118
  S       0.004909      0.275752     -0.775131
  C       2.227775     -0.356683      0.648489
  C      -2.217550     -0.379761      0.640891
  C       1.388936     -0.758486     -0.294769
  H       3.096919     -0.949274      0.910887
  C      -1.417652     -0.733090     -0.354204
  H      -3.106605     -0.954716      0.874079
  H       1.480830     -1.665623     -0.880202
  H      -1.559385     -1.578930     -1.016325
  O       0.001596      1.465205      0.082963
13
Coordinates from ORCA-job input E -704.459176365339
  O       0.017561      0.389775     -2.242594
  H       2.033597      0.550485      1.201078
  H      -2.017347      0.530964      1.214061
  S       0.004961      0.275898     -0.780581
  C       2.216839     -0.367887      0.654230
  C      -2.217618     -0.367698      0.640917
  C       1.398241     -0.752230     -0.313864
  H       3.089959     -0.956672      0.911992
  C      -1.408249     -0.738037     -0.339999
  H      -3.101327     -0.947072      0.883645
  H       1.512823     -1.639147     -0.925645
  H      -1.538459     -1.603712     -0.978507
  O       0.004820      1.463933      0.079866
13
Coordinates from ORCA-job input E -704.459185685100
  O       0.011087      0.391559     -2.239088
  H       2.029175      0.540448      1.208640
  H      -2.030715      0.544717      1.200687
  S       0.004663      0.274848     -0.777282
  C       2.217746     -0.371693      0.653236
  C      -2.222577     -0.362001      0.637500
  C       1.402403     -0.750129     -0.320108
  H       3.093115     -0.959126      0.906249
  C      -1.404661     -0.740684     -0.333366
  H      -3.104536     -0.943446      0.881589
  H       1.524311     -1.631007     -0.939342
  H      -1.529252     -1.616308     -0.959554
  O       0.005041      1.461424      0.085438
13
Coordinates from ORCA-job input E -704.459186934673
  O       0.009818      0.390232     -2.239115
  H       2.025556      0.536943      1.212422
  H      -2.030879      0.547080      1.198736
  S       0.004426      0.274435     -0.777168
  C       2.216738     -0.372830      0.654005
  C      -2.222445     -0.360970      0.637659
  C       1.403136     -0.749479     -0.321535
  H       3.093186     -0.959209      0.905769
  C      -1.403833     -0.741306     -0.332086
  H      -3.104242     -0.942298      0.882439
  H       1.527300     -1.627805     -0.944009
  H      -1.527875     -1.618149     -0.956681
  O       0.004913      1.461956      0.084165
13
Coordinates from ORCA-job input E -704.459187335522
  O       0.009747      0.390054     -2.238402
  H       2.025884      0.536324      1.212939
  H      -2.031334      0.547830      1.197607
  S       0.004231      0.274213     -0.776350
  C       2.217142     -0.373092      0.653959
  C      -2.222962     -0.360745      0.637380
  C       1.403258     -0.749383     -0.321464
  H       3.093968     -0.959172      0.905059
  C      -1.403727     -0.741675     -0.331699
  H      -3.104783     -0.942008      0.882161
  H       1.526986     -1.627138     -0.944825
  H      -1.527087     -1.618836     -0.955973
  O       0.004477      1.462226      0.084206
