! Opt B3LYP D4 def2-TZVP TightSCF TightOpt  RIJCOSX def2/J 

%maxcore 5000

%pal
nprocs 18
end

* xyz 0 1
  Li         -3.05736949492775      2.40996761486557     -1.72723063184221
  F          -1.47517471065306      5.84938351487736     -0.63114568946232
  P          -2.38835571911126      4.85765885235954      0.18241539297365
  O          -2.48069853759363      3.60179477385979     -0.61956579678572
  O          -3.57681256875554      5.55570899182973      0.68974465074209
  F          -1.38259296895873      4.56586125220794      1.35734507437451
*

