10
Coordinates from ORCA-job input E -441.589043532763
  F      -1.893016      0.665971     -0.691355
  O       0.049398      0.917225      0.440096
  O       0.557639     -1.170450     -0.155398
  O       2.160874      0.419995     -0.215331
  C      -1.179847      0.256056      0.414924
  C      -0.801209     -1.215930      0.288332
  C       1.047095      0.081203     -0.009564
  H      -1.758764      0.527911      1.295009
  H      -0.850401     -1.737734      1.244825
  H      -1.408470     -1.725246     -0.456238
10
Coordinates from ORCA-job input E -441.589092522617
  F      -1.890991      0.669391     -0.695820
  O       0.050000      0.917104      0.446085
  O       0.557306     -1.171215     -0.159857
  O       2.162223      0.421172     -0.216618
  C      -1.180728      0.256709      0.415629
  C      -0.801561     -1.217425      0.288624
  C       1.047789      0.081228     -0.009846
  H      -1.762692      0.528864      1.294373
  H      -0.846873     -1.738196      1.247130
  H      -1.411173     -1.728633     -0.454402
10
Coordinates from ORCA-job input E -441.589108660077
  F      -1.885627      0.671186     -0.700127
  O       0.050513      0.915939      0.453685
  O       0.555625     -1.170966     -0.165910
  O       2.161671      0.422047     -0.217890
  C      -1.180770      0.256552      0.416846
  C      -0.802132     -1.218183      0.288910
  C       1.047461      0.081084     -0.010186
  H      -1.767252      0.529211      1.292245
  H      -0.842074     -1.736931      1.248992
  H      -1.414115     -1.730938     -0.451266
10
Coordinates from ORCA-job input E -441.589116516584
  F      -1.878942      0.672186     -0.703976
  O       0.050984      0.913964      0.461592
  O       0.553201     -1.169880     -0.172613
  O       2.160336      0.422659     -0.219004
  C      -1.180428      0.256001      0.417932
  C      -0.802756     -1.218354      0.289148
  C       1.046741      0.080793     -0.010344
  H      -1.772065      0.529201      1.289463
  H      -0.836611     -1.734838      1.250693
  H      -1.417161     -1.732733     -0.447591
10
Coordinates from ORCA-job input E -441.589119072980
  F      -1.874160      0.672694     -0.706093
  O       0.051269      0.912194      0.466738
  O       0.551174     -1.168645     -0.177509
  O       2.159364      0.422711     -0.218888
  C      -1.180117      0.255523      0.418378
  C      -0.803188     -1.218124      0.289258
  C       1.045939      0.080657     -0.010963
  H      -1.775291      0.528940      1.287332
  H      -0.832442     -1.732974      1.251767
  H      -1.419247     -1.733976     -0.444719
10
Coordinates from ORCA-job input E -441.589118788508
  F      -1.872285      0.672938     -0.706726
  O       0.051376      0.911447      0.468517
  O       0.550262     -1.167969     -0.179417
  O       2.158695      0.422863     -0.219675
  C      -1.180018      0.255381      0.418279
  C      -0.803353     -1.217893      0.289214
  C       1.045925      0.080217     -0.009706
  H      -1.776494      0.528748      1.286366
  H      -0.830805     -1.732214      1.252020
  H      -1.420005     -1.734518     -0.443571
10
Coordinates from ORCA-job input E -441.589119513644
  F      -1.872971      0.673013     -0.706287
  O       0.051327      0.911581      0.467741
  O       0.550404     -1.167996     -0.179110
  O       2.159066      0.422551     -0.218637
  C      -1.180120      0.255460      0.418096
  C      -0.803278     -1.217833      0.289163
  C       1.045735      0.080421     -0.010607
  H      -1.776050      0.528641      1.286653
  H      -0.831024     -1.732211      1.251938
  H      -1.419789     -1.734627     -0.443651
