10
Coordinates from ORCA-job input E -441.589119513644
  F          -1.87297120639457      0.67301295029059     -0.70628721022759
  O           0.05132698387022      0.91158089046071      0.46774148302870
  O           0.55040374835208     -1.16799596944125     -0.17910963734673
  O           2.15906564456796      0.42255099561732     -0.21863668678648
  C          -1.18011973275487      0.25545993685371      0.41809646833721
  C          -0.80327846078664     -1.21783255204092      0.28916284905776
  C           1.04573528143331      0.08042139156203     -0.01060695216780
  H          -1.77604960340596      0.52864053610267      1.28665270467866
  H          -0.83102410902870     -1.73221082589805      1.25193756717901
  H          -1.41978854585281     -1.73462735350679     -0.44365058575273
