! B3LYP D3BJ 6-311++G(d,p) Opt TightSCF RIJCOSX

%maxcore 5000

%pal
nprocs 32
end

* xyz 0 1
F       -0.9675967824     -1.5056846508     -0.7671960635                 
F       -2.4691821828      0.3985957376     -0.6137845981                 
F       -0.0675560193      0.7371774169     -0.5326309567                 
P       -1.1886838856     -0.2196786198      0.3495802801                 
Li       1.6975379034      0.9143292994      1.0732890841                 
F       -2.3113875884     -1.1759684760      1.2303524820                 
F        0.0904919538     -0.8397858396      1.3142869756                 
F       -1.4079879870      1.0670209239      1.4671175918                 
*
