8
Coordinates from ORCA-job input E -948.134827226264
  F          -1.02269237936190     -1.47590283966131     -0.73766914192931
  F          -2.30377544285888      0.47165052323543     -0.50779142371404
  F           0.04428455655012      0.61111499955183     -0.54645510347703
  P          -1.15494477543963     -0.27671921001216      0.29857801355505
  Li          0.82779948291482      0.92767178256008      1.15824311136191
  F          -2.15150326308338     -1.04597816182826      1.27032038342155
  F           0.19130981328575     -0.86594066626546      1.18168152955474
  F          -1.05484258030690      1.03010936401986      1.40410742652713
