10
Coordinates from ORCA-job input E -342.343857978297
  O           0.00306091046129      1.11557333684232     -0.03465647144993
  O           0.00282892029236     -1.11562925695723      0.03468571765488
  O           1.97019916306663     -0.00022874756257     -0.00024425964858
  C          -1.36910738094325      0.74462674510946      0.17537492863127
  C          -1.36940356004910     -0.74434923411234     -0.17481926993484
  C           0.78206167824142     -0.00010399936664     -0.00012822403490
  H          -1.99784620433497      1.35038361038840     -0.47496450348199
  H          -1.62561076575818      0.93000135601124      1.22139334125959
  H          -1.99793706452666     -1.34999730131439      0.47581476572803
  H          -1.62624569644955     -0.92967650903827     -1.22075602472352
