10
Coordinates from ORCA-job input E -342.343780044607
  O       0.007333      1.113991      0.002045
  O       0.007096     -1.114041     -0.001976
  O       1.971280     -0.000235     -0.000287
  C      -1.366768      0.744541      0.174389
  C      -1.367011     -0.744276     -0.173827
  C       0.784487     -0.000113     -0.000118
  H      -1.978109      1.348404     -0.492536
  H      -1.653743      0.934241      1.210327
  H      -1.978209     -1.347996      0.493351
  H      -1.654355     -0.933915     -1.209669
10
Coordinates from ORCA-job input E -342.343822991332
  O       0.007120      1.115467     -0.003854
  O       0.006799     -1.115479      0.003915
  O       1.973189     -0.000283     -0.000411
  C      -1.367787      0.745766      0.175179
  C      -1.368144     -0.745481     -0.174538
  C       0.785108     -0.000117     -0.000087
  H      -1.982193      1.350688     -0.489930
  H      -1.649741      0.935563      1.213701
  H      -1.982324     -1.350354      0.490821
  H      -1.650026     -0.935170     -1.213095
10
Coordinates from ORCA-job input E -342.343839670987
  O       0.006184      1.116277     -0.012499
  O       0.005859     -1.116295      0.012528
  O       1.973167     -0.000309     -0.000315
  C      -1.368629      0.746105      0.175734
  C      -1.369050     -0.745800     -0.175049
  C       0.784662     -0.000137     -0.000272
  H      -1.986796      1.351454     -0.485810
  H      -1.643191      0.935027      1.216612
  H      -1.986893     -1.351125      0.486791
  H      -1.643313     -0.934597     -1.216021
10
Coordinates from ORCA-job input E -342.343851467178
  O       0.004577      1.116441     -0.024544
  O       0.004318     -1.116543      0.024640
  O       1.972025     -0.000319     -0.000836
  C      -1.369352      0.745763      0.176030
  C      -1.369760     -0.745433     -0.175376
  C       0.783507     -0.000161      0.000381
  H      -1.992795      1.351339     -0.480157
  H      -1.633826      0.933011      1.219803
  H      -1.992884     -1.351026      0.481041
  H      -1.633810     -0.932472     -1.219281
10
Coordinates from ORCA-job input E -342.343854591921
  O       0.002963      1.116063     -0.035777
  O       0.002705     -1.116045      0.035682
  O       1.970421     -0.000222      0.000997
  C      -1.369597      0.744946      0.175962
  C      -1.370054     -0.744657     -0.175289
  C       0.782147     -0.000195     -0.001865
  H      -1.998252      1.350738     -0.474597
  H      -1.624788      0.930238      1.222305
  H      -1.998227     -1.350264      0.475864
  H      -1.625318     -0.930003     -1.221581
10
Coordinates from ORCA-job input E -342.343856669841
  O       0.002431      1.115506     -0.038571
  O       0.002270     -1.115666      0.038721
  O       1.969706     -0.000261     -0.001042
  C      -1.369470      0.744452      0.175566
  C      -1.369746     -0.744142     -0.175037
  C       0.781636     -0.000140      0.000822
  H      -1.999615      1.350160     -0.473357
  H      -1.622573      0.929231      1.222449
  H      -1.999707     -1.349812      0.474063
  H      -1.622934     -0.928730     -1.221915
10
Coordinates from ORCA-job input E -342.343857961542
  O       0.002979      1.115587     -0.035036
  O       0.002769     -1.115665      0.035119
  O       1.970162     -0.000237     -0.000394
  C      -1.369224      0.744613      0.175450
  C      -1.369516     -0.744325     -0.174890
  C       0.782042     -0.000133      0.000005
  H      -1.997978      1.350337     -0.474901
  H      -1.625320      0.929899      1.221560
  H      -1.998063     -1.349948      0.475734
  H      -1.625852     -0.929529     -1.220947
10
Coordinates from ORCA-job input E -342.343857978297
  O       0.003061      1.115573     -0.034656
  O       0.002829     -1.115629      0.034686
  O       1.970199     -0.000229     -0.000244
  C      -1.369107      0.744627      0.175375
  C      -1.369404     -0.744349     -0.174819
  C       0.782062     -0.000104     -0.000128
  H      -1.997846      1.350384     -0.474965
  H      -1.625611      0.930001      1.221393
  H      -1.997937     -1.349997      0.475815
  H      -1.626246     -0.929677     -1.220756
