6
Coordinates from ORCA-job input E -698.847839892070
  Li     -3.410314      2.346687     -2.093474
  F      -1.924878      5.920905     -0.613400
  O      -0.906351      4.149613     -0.144385
  P      -2.619383      4.427128     -0.126059
  F      -3.062830      5.889301      0.659100
  O      -2.437249      4.106741      1.569780
6
Coordinates from ORCA-job input E -698.897734866311
  Li     -3.397082      2.369922     -2.077146
  F      -1.910473      5.935763     -0.678589
  O      -0.935543      4.105402     -0.099734
  P      -2.606970      4.451432     -0.113802
  F      -3.119349      5.902206      0.685144
  O      -2.391586      4.075650      1.535690
6
Coordinates from ORCA-job input E -698.944252267514
  Li     -3.384142      2.398901     -2.063329
  F      -1.910362      5.947934     -0.737338
  O      -0.985060      4.053885     -0.019886
  P      -2.598807      4.481102     -0.103484
  F      -3.171168      5.916273      0.695158
  O      -2.311465      4.042279      1.480441
6
Coordinates from ORCA-job input E -699.005020182592
  Li     -3.368902      2.442184     -2.048121
  F      -1.909195      5.952976     -0.816119
  O      -1.071811      3.989336      0.115747
  P      -2.592206      4.524482     -0.092759
  F      -3.240956      5.927004      0.707957
  O      -2.177934      4.004393      1.384857
6
Coordinates from ORCA-job input E -698.997710038918
  Li     -3.360457      2.517148     -2.018331
  F      -1.893600      5.934241     -0.915821
  O      -1.167485      3.928673      0.287656
  P      -2.584376      4.586465     -0.089129
  F      -3.341185      5.910919      0.719240
  O      -2.013900      3.962930      1.267947
6
Coordinates from ORCA-job input E -699.035948032388
  Li     -3.375557      2.531856     -2.008888
  F      -1.884876      5.916940     -0.902332
  O      -1.072794      3.955322      0.194663
  P      -2.580679      4.581130     -0.097154
  F      -3.341266      5.885137      0.705680
  O      -2.105831      3.969989      1.359593
6
Coordinates from ORCA-job input E -699.042789854734
  Li     -3.369517      2.614854     -1.941333
  F      -1.867902      5.890648     -0.930148
  O      -1.059068      3.948199      0.202710
  P      -2.574773      4.593972     -0.113334
  F      -3.391408      5.839494      0.685133
  O      -2.098335      3.953209      1.348534
6
Coordinates from ORCA-job input E -699.049105477653
  Li     -3.367538      2.742768     -1.835094
  F      -1.842497      5.853848     -0.964493
  O      -1.036972      3.941115      0.217859
  P      -2.559718      4.611648     -0.138578
  F      -3.463899      5.757335      0.645263
  O      -2.090380      3.933662      1.326605
6
Coordinates from ORCA-job input E -699.051443197666
  Li     -3.352205      2.845058     -1.740171
  F      -1.832976      5.834856     -0.979047
  O      -1.026185      3.930844      0.216261
  P      -2.552375      4.606090     -0.159302
  F      -3.505978      5.704986      0.607072
  O      -2.091285      3.918541      1.306749
6
Coordinates from ORCA-job input E -699.052147828632
  Li     -3.344706      2.914842     -1.668554
  F      -1.828126      5.831305     -0.976054
  O      -1.017104      3.920161      0.210427
  P      -2.543913      4.592349     -0.174597
  F      -3.534867      5.669983      0.569850
  O      -2.092288      3.911734      1.290490
6
Coordinates from ORCA-job input E -699.052651000171
  Li     -3.360774      2.906186     -1.670219
  F      -1.824332      5.842348     -0.958752
  O      -1.010836      3.918725      0.209602
  P      -2.535961      4.587152     -0.174828
  F      -3.540124      5.666545      0.557065
  O      -2.088977      3.919418      1.288695
6
Coordinates from ORCA-job input E -699.053952565641
  Li     -3.442516      2.903411     -1.649966
  F      -1.799067      5.883594     -0.873360
  O      -0.971542      3.905190      0.205109
  P      -2.492543      4.565618     -0.182941
  F      -3.587388      5.619467      0.475682
  O      -2.067947      3.963096      1.277038
6
Coordinates from ORCA-job input E -699.054671680332
  Li     -3.497223      2.908455     -1.641682
  F      -1.779342      5.900265     -0.819218
  O      -0.944971      3.893218      0.202258
  P      -2.467624      4.558262     -0.187388
  F      -3.625605      5.580979      0.422018
  O      -2.046239      3.999196      1.275573
6
Coordinates from ORCA-job input E -699.055920820447
  Li     -3.620251      2.938419     -1.623679
  F      -1.738092      5.923621     -0.692622
  O      -0.882661      3.856907      0.194107
  P      -2.416480      4.544510     -0.197886
  F      -3.715652      5.477390      0.292510
  O      -1.987868      4.099528      1.279132
6
Coordinates from ORCA-job input E -699.056904934683
  Li     -3.609729      2.940386     -1.640149
  F      -1.735458      5.912682     -0.716209
  O      -0.890791      3.855904      0.203419
  P      -2.426878      4.550331     -0.197442
  F      -3.720008      5.481165      0.314709
  O      -1.978140      4.099907      1.287233
6
Coordinates from ORCA-job input E -699.058071326850
  Li     -3.620348      2.972085     -1.655491
  F      -1.726669      5.899186     -0.716716
  O      -0.887103      3.825332      0.219471
  P      -2.429009      4.546639     -0.203638
  F      -3.756173      5.444989      0.313174
  O      -1.941701      4.152144      1.294762
6
Coordinates from ORCA-job input E -699.058452464006
  Li     -3.609491      2.986851     -1.669465
  F      -1.731544      5.890531     -0.727273
  O      -0.893757      3.802504      0.228784
  P      -2.434623      4.540537     -0.204351
  F      -3.764012      5.436037      0.329884
  O      -1.927576      4.183916      1.293983
6
Coordinates from ORCA-job input E -699.058649498059
  Li     -3.606067      2.995195     -1.687036
  F      -1.734541      5.881393     -0.723795
  O      -0.897891      3.779250      0.231094
  P      -2.439119      4.533244     -0.199525
  F      -3.773197      5.427636      0.337655
  O      -1.910189      4.223657      1.293169
6
Coordinates from ORCA-job input E -699.058763992576
  Li     -3.577320      2.992658     -1.707594
  F      -1.746528      5.868879     -0.744000
  O      -0.914919      3.767780      0.230434
  P      -2.453607      4.531202     -0.189854
  F      -3.762842      5.444388      0.368364
  O      -1.905788      4.235467      1.294211
6
Coordinates from ORCA-job input E -699.058864935628
  Li     -3.558039      2.990317     -1.722285
  F      -1.753630      5.857267     -0.750686
  O      -0.926532      3.757955      0.222795
  P      -2.465601      4.530350     -0.178589
  F      -3.759153      5.456244      0.382588
  O      -1.898049      4.248243      1.297739
6
Coordinates from ORCA-job input E -699.058932432434
  Li     -3.534702      2.987210     -1.730393
  F      -1.761108      5.847173     -0.759953
  O      -0.939055      3.752002      0.211839
  P      -2.478688      4.532951     -0.167900
  F      -3.753367      5.471498      0.394991
  O      -1.894084      4.249541      1.302978
6
Coordinates from ORCA-job input E -699.058946831800
  Li     -3.529538      2.986712     -1.728987
  F      -1.762033      5.846783     -0.760602
  O      -0.941263      3.749410      0.208575
  P      -2.481408      4.534929     -0.166608
  F      -3.753594      5.474230      0.395462
  O      -1.893168      4.248310      1.303722
6
Coordinates from ORCA-job input E -699.058962887779
  Li     -3.522146      2.984202     -1.726328
  F      -1.763031      5.848305     -0.760668
  O      -0.944540      3.744485      0.204751
  P      -2.485036      4.538605     -0.166086
  F      -3.753818      5.478561      0.397034
  O      -1.892434      4.246217      1.302860
6
Coordinates from ORCA-job input E -699.058979748888
  Li     -3.513261      2.978548     -1.722384
  F      -1.763555      5.852048     -0.758727
  O      -0.948811      3.737926      0.200045
  P      -2.489217      4.543748     -0.166530
  F      -3.753663      5.484672      0.399593
  O      -1.892496      4.243433      1.299565
6
Coordinates from ORCA-job input E -699.058997264125
  Li     -3.501731      2.968665     -1.716930
  F      -1.763390      5.857863     -0.754361
  O      -0.954902      3.730071      0.193427
  P      -2.494491      4.550576     -0.167955
  F      -3.752498      5.493622      0.403962
  O      -1.893992      4.239577      1.293419
6
Coordinates from ORCA-job input E -699.059008023999
  Li     -3.492333      2.958982     -1.712221
  F      -1.762334      5.862670     -0.749539
  O      -0.960354      3.725023      0.187244
  P      -2.498712      4.555943     -0.169774
  F      -3.750750      5.501591      0.408369
  O      -1.896521      4.236166      1.287485
6
Coordinates from ORCA-job input E -699.059013090647
  Li     -3.486536      2.952393     -1.709250
  F      -1.760974      5.865146     -0.746168
  O      -0.964049      3.723369      0.182733
  P      -2.501312      4.558890     -0.171266
  F      -3.749209      5.506827      0.411628
  O      -1.898924      4.233749      1.283885
6
Coordinates from ORCA-job input E -699.059015166701
  Li     -3.484307      2.949497     -1.707867
  F      -1.759824      5.865797     -0.744536
  O      -0.965706      3.723737      0.180340
  P      -2.502288      4.559825     -0.172188
  F      -3.748529      5.509019      0.413089
  O      -1.900350      4.232500      1.282724
6
Coordinates from ORCA-job input E -699.059015749959
  Li     -3.483121      2.948710     -1.707448
  F      -1.759398      5.865647     -0.744330
  O      -0.966599      3.724043      0.179187
  P      -2.502800      4.560067     -0.172380
  F      -3.748316      5.509901      0.413776
  O      -1.900770      4.232006      1.282757
6
Coordinates from ORCA-job input E -699.059015942952
  Li     -3.482969      2.948778     -1.707264
  F      -1.759232      5.865588     -0.744345
  O      -0.966794      3.724150      0.178876
  P      -2.502772      4.560036     -0.172426
  F      -3.748472      5.509911      0.413736
  O      -1.900765      4.231911      1.282984
6
Coordinates from ORCA-job input E -699.059016055044
  Li     -3.482637      2.948800     -1.707189
  F      -1.759189      5.865613     -0.744469
  O      -0.967116      3.723948      0.178629
  P      -2.502783      4.560091     -0.172376
  F      -3.748633      5.509992      0.413829
  O      -1.900647      4.231931      1.283138
6
Coordinates from ORCA-job input E -699.059015924467
  Li     -3.478840      2.947781     -1.707007
  F      -1.759315      5.865637     -0.744940
  O      -0.969917      3.721716      0.176574
  P      -2.504051      4.561022     -0.171786
  F      -3.748937      5.511848      0.415596
  O      -1.899944      4.232371      1.283125
6
Coordinates from ORCA-job input E -699.059016306777
  Li     -3.480277      2.947854     -1.706734
  F      -1.759158      5.865984     -0.744548
  O      -0.968867      3.722577      0.177273
  P      -2.503467      4.560862     -0.172166
  F      -3.748754      5.511221      0.414891
  O      -1.900481      4.231878      1.282846
6
Coordinates from ORCA-job input E -699.059016371304
  Li     -3.481939      2.948120     -1.706476
  F      -1.758913      5.866321     -0.744179
  O      -0.967757      3.723421      0.178040
  P      -2.502714      4.560659     -0.172495
  F      -3.748790      5.510335      0.414011
  O      -1.900890      4.231518      1.282660
6
Coordinates from ORCA-job input E -699.059016387120
  Li     -3.481238      2.947926     -1.706516
  F      -1.758950      5.866281     -0.744314
  O      -0.968271      3.723048      0.177695
  P      -2.502966      4.560804     -0.172379
  F      -3.748789      5.510685      0.414413
  O      -1.900790      4.231631      1.282664
