! Opt B3LYP D4 def2-TZVP TightSCF TightOpt CPCM(water)  RIJCOSX def2/J 

%maxcore 5000

%pal
nprocs 18
end

* xyz 0 1
Li      -3.4103138523   2.3466869161  -2.0934737716
F       -1.9248775677   5.9209049267  -0.6134004247
O       -0.9063509410   4.1496132486  -0.1443850955
P       -2.6193829343   4.4271279130  -0.1260593046
F       -3.0628296544   5.8893005025   0.6591003841
O       -2.4372488012   4.1067414379   1.5697802896
*

