6
Coordinates from ORCA-job input E -699.014540873756
  Li     -3.481238      2.947926     -1.706516
  F      -1.758950      5.866281     -0.744314
  O      -0.968271      3.723048      0.177695
  P      -2.502966      4.560804     -0.172379
  F      -3.748789      5.510685      0.414413
  O      -1.900790      4.231631      1.282664
6
Coordinates from ORCA-job input E -699.016291842083
  Li     -3.462852      2.967406     -1.682964
  F      -1.758464      5.866150     -0.755616
  O      -0.983372      3.711514      0.167289
  P      -2.497253      4.571568     -0.167231
  F      -3.756270      5.497034      0.408701
  O      -1.902793      4.226702      1.281382
6
Coordinates from ORCA-job input E -699.017873690234
  Li     -3.418029      3.005438     -1.627133
  F      -1.765337      5.864562     -0.770782
  O      -1.014260      3.692524      0.138555
  P      -2.489771      4.588449     -0.157115
  F      -3.763254      5.481407      0.391158
  O      -1.910354      4.207995      1.276878
6
Coordinates from ORCA-job input E -699.018014385474
  Li     -3.407283      3.006382     -1.616775
  F      -1.767504      5.865389     -0.769567
  O      -1.018544      3.690849      0.131497
  P      -2.492517      4.589214     -0.157984
  F      -3.762053      5.487112      0.389947
  O      -1.913103      4.201428      1.274445
6
Coordinates from ORCA-job input E -699.018458844846
  Li     -3.355176      2.998834     -1.573157
  F      -1.773405      5.871887     -0.760882
  O      -1.039429      3.683434      0.098661
  P      -2.510715      4.594055     -0.165813
  F      -3.755393      5.521027      0.393083
  O      -1.926887      4.171139      1.259671
6
Coordinates from ORCA-job input E -699.018783104218
  Li     -3.314350      2.984549     -1.545455
  F      -1.772989      5.878881     -0.754292
  O      -1.059306      3.674985      0.074275
  P      -2.526338      4.602649     -0.172335
  F      -3.751005      5.546788      0.403232
  O      -1.937015      4.152523      1.246137
6
Coordinates from ORCA-job input E -699.020465270047
  Li     -3.181998      2.935538     -1.458384
  F      -1.766625      5.900958     -0.731467
  O      -1.127830      3.645271     -0.003372
  P      -2.578213      4.633674     -0.195207
  F      -3.736383      5.624297      0.441706
  O      -1.969955      4.100637      1.198286
6
Coordinates from ORCA-job input E -699.022795903577
  Li     -3.087924      2.908755     -1.393259
  F      -1.761711      5.914079     -0.715998
  O      -1.179764      3.621514     -0.058827
  P      -2.611978      4.656963     -0.210149
  F      -3.726430      5.670096      0.466658
  O      -1.993196      4.068967      1.163138
6
Coordinates from ORCA-job input E -699.026324005519
  Li     -2.991413      2.887936     -1.322725
  F      -1.756933      5.925561     -0.700003
  O      -1.234331      3.596125     -0.116148
  P      -2.644780      4.680310     -0.225589
  F      -3.716160      5.711600      0.490049
  O      -2.017386      4.038842      1.125978
6
Coordinates from ORCA-job input E -699.029627985498
  Li     -2.925845      2.873464     -1.274729
  F      -1.752837      5.933236     -0.689374
  O      -1.272404      3.577908     -0.155044
  P      -2.665902      4.698195     -0.235874
  F      -3.709259      5.737202      0.506885
  O      -2.034757      4.020370      1.099698
6
Coordinates from ORCA-job input E -699.032843890670
  Li     -2.860197      2.861528     -1.225070
  F      -1.749464      5.940329     -0.678688
  O      -1.309996      3.559273     -0.193274
  P      -2.687060      4.715695     -0.247088
  F      -3.701472      5.761426      0.523484
  O      -2.052815      4.002124      1.072197
6
Coordinates from ORCA-job input E -699.037141096828
  Li     -2.813656      2.832847     -1.198548
  F      -1.738939      5.943834     -0.671365
  O      -1.337162      3.547462     -0.220349
  P      -2.702544      4.742652     -0.250692
  F      -3.698761      5.776762      0.544717
  O      -2.069941      3.996818      1.047798
6
Coordinates from ORCA-job input E -699.042048299901
  Li     -2.753062      2.786252     -1.166846
  F      -1.727598      5.950459     -0.659954
  O      -1.366972      3.528368     -0.251444
  P      -2.725863      4.784441     -0.255549
  F      -3.691064      5.798350      0.576575
  O      -2.096445      3.992506      1.008780
6
Coordinates from ORCA-job input E -699.045890532320
  Li     -2.723387      2.704039     -1.172744
  F      -1.712970      5.960183     -0.647635
  O      -1.369231      3.513779     -0.258769
  P      -2.748364      4.837774     -0.254841
  F      -3.687902      5.818150      0.615249
  O      -2.119150      4.006449      0.970302
6
Coordinates from ORCA-job input E -699.043328839908
  Li     -2.585508      2.640612     -1.083800
  F      -1.710352      5.987318     -0.609461
  O      -1.428588      3.446766     -0.323667
  P      -2.811233      4.902116     -0.283930
  F      -3.655956      5.880755      0.674199
  O      -2.169367      3.982807      0.878220
6
Coordinates from ORCA-job input E -699.048509551307
  Li     -2.665185      2.625241     -1.147662
  F      -1.712389      5.982854     -0.624680
  O      -1.367075      3.480132     -0.275417
  P      -2.793207      4.888492     -0.268545
  F      -3.669979      5.865935      0.659481
  O      -2.153169      3.997721      0.908384
6
Coordinates from ORCA-job input E -699.049187156113
  Li     -2.647741      2.602100     -1.136215
  F      -1.711072      5.993046     -0.619425
  O      -1.362172      3.463537     -0.280728
  P      -2.806199      4.909489     -0.270509
  F      -3.668135      5.880340      0.674244
  O      -2.165684      3.991864      0.884194
6
Coordinates from ORCA-job input E -699.050212798022
  Li     -2.612208      2.545663     -1.102001
  F      -1.701135      6.030034     -0.598932
  O      -1.354470      3.406367     -0.296550
  P      -2.832074      4.964870     -0.281893
  F      -3.677306      5.905127      0.708390
  O      -2.183810      3.988314      0.822547
6
Coordinates from ORCA-job input E -699.050497804101
  Li     -2.611888      2.530178     -1.090241
  F      -1.701764      6.045816     -0.591837
  O      -1.339578      3.387426     -0.296328
  P      -2.837587      4.982991     -0.284818
  F      -3.679566      5.909761      0.715425
  O      -2.190621      3.984202      0.799362
6
Coordinates from ORCA-job input E -699.050789105455
  Li     -2.626027      2.514324     -1.068954
  F      -1.699681      6.072729     -0.574641
  O      -1.318188      3.361224     -0.297157
  P      -2.838255      5.003892     -0.296011
  F      -3.689126      5.903719      0.718157
  O      -2.189727      3.984487      0.770168
6
Coordinates from ORCA-job input E -699.050998801948
  Li     -2.640575      2.511556     -1.040635
  F      -1.699182      6.096442     -0.557693
  O      -1.300735      3.340521     -0.301202
  P      -2.834470      5.019227     -0.307602
  F      -3.696142      5.892310      0.715592
  O      -2.189899      3.980318      0.743101
6
Coordinates from ORCA-job input E -699.051474320630
  Li     -2.679398      2.520080     -0.966770
  F      -1.696518      6.145616     -0.514617
  O      -1.267279      3.303165     -0.317029
  P      -2.818934      5.045053     -0.338298
  F      -3.713237      5.856272      0.701365
  O      -2.185638      3.970190      0.686911
6
Coordinates from ORCA-job input E -699.052167628052
  Li     -2.732249      2.549225     -0.849713
  F      -1.694114      6.205546     -0.449258
  O      -1.227572      3.259958     -0.348673
  P      -2.792132      5.074693     -0.382666
  F      -3.735003      5.799538      0.672792
  O      -2.179933      3.951415      0.609080
6
Coordinates from ORCA-job input E -699.052633416867
  Li     -2.758469      2.568464     -0.759221
  F      -1.686363      6.236944     -0.396151
  O      -1.215973      3.239262     -0.383866
  P      -2.772913      5.094211     -0.416661
  F      -3.751794      5.758507      0.649841
  O      -2.175492      3.942987      0.557621
6
Coordinates from ORCA-job input E -699.053229875908
  Li     -2.756290      2.562366     -0.712170
  F      -1.667276      6.232443     -0.365098
  O      -1.232210      3.258652     -0.418275
  P      -2.764269      5.099462     -0.435485
  F      -3.761508      5.740928      0.637847
  O      -2.179450      3.946525      0.544744
6
Coordinates from ORCA-job input E -699.054337521345
  Li     -2.758226      2.538885     -0.598850
  F      -1.635542      6.235398     -0.298241
  O      -1.236604      3.292394     -0.485215
  P      -2.746978      5.127425     -0.468710
  F      -3.773476      5.711829      0.615830
  O      -2.210179      3.934444      0.486747
6
Coordinates from ORCA-job input E -699.056878341081
  Li     -2.699280      2.423383     -0.507019
  F      -1.563746      6.174227     -0.238798
  O      -1.280571      3.420366     -0.569074
  P      -2.749272      5.157112     -0.492743
  F      -3.777147      5.734154      0.610065
  O      -2.290988      3.931134      0.449133
6
Coordinates from ORCA-job input E -699.058506785542
  Li     -2.613328      2.323786     -0.435384
  F      -1.521260      6.140173     -0.192520
  O      -1.310822      3.462438     -0.617784
  P      -2.769985      5.211700     -0.504133
  F      -3.775616      5.784532      0.624372
  O      -2.369993      3.917747      0.377011
6
Coordinates from ORCA-job input E -699.059409587718
  Li     -2.513052      2.243297     -0.383303
  F      -1.502634      6.125324     -0.147951
  O      -1.341014      3.431789     -0.649607
  P      -2.800754      5.278811     -0.509546
  F      -3.773020      5.846666      0.644218
  O      -2.430529      3.914488      0.297752
6
Coordinates from ORCA-job input E -699.059148336095
  Li     -2.478446      2.160186     -0.247687
  F      -1.482521      6.107207     -0.055626
  O      -1.361046      3.465811     -0.749168
  P      -2.794401      5.342006     -0.536470
  F      -3.774892      5.848427      0.640719
  O      -2.469697      3.916739      0.199794
6
Coordinates from ORCA-job input E -699.060244066641
  Li     -2.509770      2.207282     -0.311055
  F      -1.501204      6.143381     -0.099065
  O      -1.350530      3.435709     -0.706844
  P      -2.784746      5.310019     -0.518688
  F      -3.770384      5.833478      0.636990
  O      -2.444369      3.910506      0.250224
6
Coordinates from ORCA-job input E -699.060553789977
  Li     -2.496177      2.192045     -0.324655
  F      -1.503132      6.150484     -0.102571
  O      -1.362989      3.430519     -0.703105
  P      -2.782421      5.310374     -0.512864
  F      -3.767901      5.845098      0.633635
  O      -2.448385      3.911856      0.261123
6
Coordinates from ORCA-job input E -699.060998126051
  Li     -2.487255      2.169053     -0.309077
  F      -1.510814      6.175439     -0.080184
  O      -1.387382      3.423358     -0.729606
  P      -2.765436      5.315100     -0.514048
  F      -3.763887      5.848603      0.620455
  O      -2.446229      3.908822      0.264022
6
Coordinates from ORCA-job input E -699.061194617301
  Li     -2.473124      2.144937     -0.282446
  F      -1.509105      6.186459     -0.053816
  O      -1.413512      3.428196     -0.762171
  P      -2.751280      5.321826     -0.517609
  F      -3.765652      5.853015      0.608764
  O      -2.448331      3.905942      0.258839
6
Coordinates from ORCA-job input E -699.061269558326
  Li     -2.467003      2.143403     -0.278386
  F      -1.506534      6.185315     -0.047675
  O      -1.424533      3.432844     -0.771042
  P      -2.747369      5.318313     -0.518591
  F      -3.768267      5.856085      0.603907
  O      -2.447298      3.904415      0.263349
6
Coordinates from ORCA-job input E -699.061365413521
  Li     -2.452988      2.142751     -0.263033
  F      -1.498702      6.175994     -0.035515
  O      -1.438935      3.441964     -0.788335
  P      -2.744665      5.316674     -0.519324
  F      -3.773383      5.861573      0.598348
  O      -2.452331      3.901418      0.259421
6
Coordinates from ORCA-job input E -699.061419211227
  Li     -2.442510      2.145659     -0.251781
  F      -1.494326      6.166588     -0.027079
  O      -1.445670      3.445108     -0.799585
  P      -2.745534      5.316614     -0.519239
  F      -3.775811      5.865813      0.595673
  O      -2.457152      3.900592      0.253573
6
Coordinates from ORCA-job input E -699.061451732429
  Li     -2.430869      2.143345     -0.233984
  F      -1.491295      6.159845     -0.014278
  O      -1.451738      3.443732     -0.814949
  P      -2.746120      5.322873     -0.519279
  F      -3.777155      5.869260      0.593708
  O      -2.463827      3.901319      0.240345
6
Coordinates from ORCA-job input E -699.061462641427
  Li     -2.425612      2.143374     -0.228203
  F      -1.491379      6.158289     -0.009115
  O      -1.454572      3.439650     -0.820628
  P      -2.746207      5.325988     -0.518906
  F      -3.776986      5.870327      0.592728
  O      -2.466248      3.902747      0.235686
6
Coordinates from ORCA-job input E -699.061467140347
  Li     -2.420183      2.139615     -0.220044
  F      -1.490458      6.157939     -0.003125
  O      -1.458189      3.437847     -0.827269
  P      -2.745268      5.330609     -0.519283
  F      -3.777070      5.871102      0.592133
  O      -2.469836      3.903263      0.229150
6
Coordinates from ORCA-job input E -699.061471374515
  Li     -2.415210      2.137500     -0.214714
  F      -1.489359      6.157296      0.000907
  O      -1.461750      3.436832     -0.831438
  P      -2.744359      5.333670     -0.519922
  F      -3.777046      5.871628      0.591805
  O      -2.473279      3.903449      0.224924
6
Coordinates from ORCA-job input E -699.061479274181
  Li     -2.402414      2.133290     -0.202429
  F      -1.485668      6.153475      0.009696
  O      -1.470482      3.437197     -0.840441
  P      -2.742637      5.339712     -0.521820
  F      -3.776970      5.873406      0.591232
  O      -2.482833      3.903294      0.215324
6
Coordinates from ORCA-job input E -699.061485012887
  Li     -2.387828      2.129664     -0.187919
  F      -1.481302      6.147400      0.019881
  O      -1.479891      3.438603     -0.851101
  P      -2.741383      5.345736     -0.523873
  F      -3.776942      5.875925      0.590486
  O      -2.493658      3.903046      0.204088
6
Coordinates from ORCA-job input E -699.061488420118
  Li     -2.355925      2.122258     -0.151855
  F      -1.472265      6.133410      0.045049
  O      -1.500550      3.440396     -0.878305
  P      -2.738516      5.360039     -0.527956
  F      -3.777374      5.881180      0.588424
  O      -2.516372      3.903094      0.176205
6
Coordinates from ORCA-job input E -699.061494149352
  Li     -2.363460      2.127248     -0.163926
  F      -1.474488      6.136752      0.037187
  O      -1.495204      3.438404     -0.868857
  P      -2.739747      5.355270     -0.526854
  F      -3.776923      5.879785      0.589240
  O      -2.511182      3.902916      0.184772
6
Coordinates from ORCA-job input E -699.061498356964
  Li     -2.352529      2.125079     -0.151342
  F      -1.471693      6.132591      0.046068
  O      -1.502238      3.437701     -0.878561
  P      -2.738735      5.360420     -0.527749
  F      -3.777166      5.881666      0.588483
  O      -2.518643      3.902917      0.174663
6
Coordinates from ORCA-job input E -699.061497285830
  Li     -2.335123      2.121573     -0.130646
  F      -1.467564      6.126481      0.060713
  O      -1.513385      3.435451     -0.894659
  P      -2.737078      5.369073     -0.528710
  F      -3.777719      5.884895      0.587275
  O      -2.530135      3.902902      0.157589
6
Coordinates from ORCA-job input E -699.061500891842
  Li     -2.345781      2.123475     -0.143993
  F      -1.470415      6.131362      0.051633
  O      -1.506542      3.435468     -0.884619
  P      -2.738090      5.363911     -0.527492
  F      -3.777466      5.883433      0.587879
  O      -2.522710      3.902725      0.168154
6
Coordinates from ORCA-job input E -699.061501225463
  Li     -2.344100      2.123225     -0.141957
  F      -1.470147      6.131131      0.053308
  O      -1.507821      3.434578     -0.886426
  P      -2.737861      5.364880     -0.527512
  F      -3.777665      5.883797      0.587674
  O      -2.523409      3.902763      0.166475
6
Coordinates from ORCA-job input E -699.061501314642
  Li     -2.341874      2.122911     -0.139237
  F      -1.469714      6.130700      0.055426
  O      -1.509574      3.433684     -0.888831
  P      -2.737460      5.366101     -0.527437
  F      -3.777980      5.884222      0.587324
  O      -2.524401      3.902756      0.164317
