6
Coordinates from ORCA-job input E -699.238663885516
  Li     -3.057369      2.409968     -1.727231
  F      -1.475175      5.849384     -0.631146
  P      -2.388356      4.857659      0.182415
  O      -2.480699      3.601795     -0.619566
  O      -3.576813      5.555709      0.689745
  F      -1.382593      4.565861      1.357345
6
Coordinates from ORCA-job input E -699.239554212527
  Li     -3.054618      2.420910     -1.720621
  F      -1.474597      5.842216     -0.638276
  P      -2.389376      4.863928      0.188484
  O      -2.478540      3.603795     -0.618324
  O      -3.584013      5.550482      0.685197
  F      -1.379860      4.559044      1.355104
6
Coordinates from ORCA-job input E -699.240482184817
  Li     -3.050750      2.447309     -1.702041
  F      -1.472122      5.828986     -0.648632
  P      -2.391150      4.875161      0.198203
  O      -2.473235      3.604775     -0.618589
  O      -3.597952      5.536485      0.674416
  F      -1.375796      4.547658      1.348205
6
Coordinates from ORCA-job input E -699.240637431271
  Li     -3.052195      2.453795     -1.695605
  F      -1.470910      5.829255     -0.646754
  P      -2.390810      4.874504      0.197040
  O      -2.471569      3.602206     -0.621228
  O      -3.599478      5.532424      0.671611
  F      -1.376041      4.548190      1.346501
6
Coordinates from ORCA-job input E -699.240845758820
  Li     -3.057556      2.467449     -1.680543
  F      -1.469152      5.833097     -0.640351
  P      -2.388751      4.869020      0.191100
  O      -2.466914      3.595560     -0.628863
  O      -3.600599      5.523856      0.665541
  F      -1.378032      4.551392      1.344679
6
Coordinates from ORCA-job input E -699.240867371905
  Li     -3.059048      2.468934     -1.678374
  F      -1.469806      5.834326     -0.640054
  P      -2.387892      4.867195      0.189572
  O      -2.465148      3.595628     -0.630049
  O      -3.600189      5.522917      0.664690
  F      -1.378921      4.551375      1.345778
6
Coordinates from ORCA-job input E -699.240880933596
  Li     -3.061050      2.470361     -1.675644
  F      -1.470683      5.835431     -0.640514
  P      -2.386996      4.865757      0.188295
  O      -2.462072      3.596961     -0.631311
  O      -3.600209      5.521628      0.663527
  F      -1.379994      4.550237      1.347210
6
Coordinates from ORCA-job input E -699.240887310610
  Li     -3.062932      2.470971     -1.673401
  F      -1.470744      5.836278     -0.640372
  P      -2.386612      4.865458      0.187705
  O      -2.459432      3.598078     -0.632572
  O      -3.600697      5.520288      0.662491
  F      -1.380587      4.549303      1.347711
6
Coordinates from ORCA-job input E -699.240905876633
  Li     -3.070528      2.471749     -1.665310
  F      -1.469959      5.840189     -0.638149
  P      -2.385257      4.865087      0.185699
  O      -2.450092      3.601600     -0.638049
  O      -3.602674      5.515102      0.658636
  F      -1.382494      4.546647      1.348737
6
Coordinates from ORCA-job input E -699.240941343361
  Li     -3.086944      2.470450     -1.647729
  F      -1.467020      5.850238     -0.630589
  P      -2.382381      4.864969      0.181196
  O      -2.431751      3.608958     -0.651668
  O      -3.606573      5.504251      0.650605
  F      -1.386334      4.541509      1.349748
6
Coordinates from ORCA-job input E -699.241002146458
  Li     -3.106727      2.465663     -1.624445
  F      -1.462162      5.864565     -0.618183
  P      -2.378757      4.865627      0.175174
  O      -2.411295      3.618681     -0.671228
  O      -3.610991      5.491186      0.640812
  F      -1.391072      4.534652      1.349434
6
Coordinates from ORCA-job input E -699.241064289089
  Li     -3.120461      2.458119     -1.609333
  F      -1.457237      5.875352     -0.607086
  P      -2.377031      4.867920      0.171729
  O      -2.398503      3.625748     -0.686045
  O      -3.614020      5.482978      0.634677
  F      -1.393752      4.530257      1.347621
6
Coordinates from ORCA-job input E -699.241108551562
  Li     -3.132067      2.452185     -1.591075
  F      -1.453101      5.886038     -0.596392
  P      -2.375240      4.869136      0.167172
  O      -2.386715      3.633999     -0.702257
  O      -3.616530      5.475285      0.628650
  F      -1.397351      4.523732      1.345464
6
Coordinates from ORCA-job input E -699.241167248920
  Li     -3.148854      2.440981     -1.561366
  F      -1.446057      5.903430     -0.577646
  P      -2.372707      4.871328      0.159483
  O      -2.370346      3.647303     -0.729501
  O      -3.619833      5.464300      0.619823
  F      -1.403207      4.513034      1.340770
6
Coordinates from ORCA-job input E -699.241150806928
  Li     -3.157633      2.428922     -1.508152
  F      -1.439360      5.924615     -0.557693
  P      -2.369647      4.873629      0.146586
  O      -2.355953      3.676882     -0.770270
  O      -3.623348      5.453703      0.609191
  F      -1.415063      4.482625      1.331902
6
Coordinates from ORCA-job input E -699.240899152511
  Li     -3.212499      2.457539     -1.492463
  F      -1.444180      5.949590     -0.534069
  P      -2.342444      4.855052      0.131955
  O      -2.320326      3.648726     -0.785763
  O      -3.626377      5.412510      0.582316
  F      -1.415179      4.516957      1.349587
6
Coordinates from ORCA-job input E -699.241298087285
  Li     -3.185223      2.439443     -1.510354
  F      -1.439675      5.934014     -0.546899
  P      -2.358715      4.868027      0.143660
  O      -2.340015      3.660441     -0.771316
  O      -3.626208      5.434360      0.597184
  F      -1.411168      4.504091      1.339289
6
Coordinates from ORCA-job input E -699.241310853470
  Li     -3.183045      2.446058     -1.519224
  F      -1.442290      5.928522     -0.553856
  P      -2.358572      4.867039      0.146368
  O      -2.341818      3.656352     -0.761108
  O      -3.626569      5.434429      0.597752
  F      -1.408710      4.507975      1.341632
6
Coordinates from ORCA-job input E -699.241326694431
  Li     -3.189499      2.449515     -1.513918
  F      -1.441850      5.930782     -0.551141
  P      -2.356478      4.866554      0.145249
  O      -2.336013      3.657106     -0.763109
  O      -3.628649      5.427996      0.592773
  F      -1.408516      4.508422      1.341710
6
Coordinates from ORCA-job input E -699.241393119206
  Li     -3.225416      2.472558     -1.490975
  F      -1.441229      5.941219     -0.538511
  P      -2.345703      4.861739      0.139769
  O      -2.303516      3.654692     -0.770128
  O      -3.638350      5.393453      0.567125
  F      -1.406790      4.516714      1.344284
6
Coordinates from ORCA-job input E -699.241694600809
  Li     -3.326508      2.556371     -1.394896
  F      -1.443496      5.974275     -0.498190
  P      -2.315464      4.843151      0.116605
  O      -2.203036      3.652015     -0.805675
  O      -3.662050      5.285831      0.485153
  F      -1.410450      4.528732      1.348566
6
Coordinates from ORCA-job input E -699.242549516273
  Li     -3.411042      2.668247     -1.296206
  F      -1.456166      5.996362     -0.470076
  P      -2.288644      4.818802      0.093463
  O      -2.109434      3.640814     -0.832612
  O      -3.678305      5.176284      0.404144
  F      -1.417413      4.539866      1.352849
6
Coordinates from ORCA-job input E -699.243993193688
  Li     -3.458175      2.757296     -1.226232
  F      -1.469894      6.007590     -0.458069
  P      -2.271926      4.798714      0.076569
  O      -2.049823      3.630074     -0.848839
  O      -3.685308      5.102036      0.351417
  F      -1.425879      4.544664      1.356717
6
Coordinates from ORCA-job input E -699.245701106093
  Li     -3.487810      2.831334     -1.170482
  F      -1.482143      6.014332     -0.452151
  P      -2.260159      4.782042      0.063169
  O      -2.007371      3.621053     -0.860896
  O      -3.689114      5.045331      0.312198
  F      -1.434406      4.546283      1.359726
6
Coordinates from ORCA-job input E -699.247937312411
  Li     -3.512916      2.911216     -1.111732
  F      -1.495747      6.019331     -0.447376
  P      -2.248822      4.764690      0.049509
  O      -1.967512      3.611451     -0.872753
  O      -3.691910      4.986822      0.271980
  F      -1.444098      4.546866      1.361934
6
Coordinates from ORCA-job input E -699.250554023687
  Li     -3.533856      2.995976     -1.050908
  F      -1.510663      6.022896     -0.443796
  P      -2.237726      4.746823      0.035729
  O      -1.930366      3.601311     -0.884196
  O      -3.693539      4.926723      0.231083
  F      -1.454854      4.546647      1.363652
6
Coordinates from ORCA-job input E -699.254365978647
  Li     -3.556365      3.131528     -0.956998
  F      -1.536036      6.024093     -0.439285
  P      -2.222435      4.719511      0.015243
  O      -1.879795      3.584491     -0.900010
  O      -3.694247      4.835181      0.169008
  F      -1.472125      4.545571      1.363606
6
Coordinates from ORCA-job input E -699.254538563786
  Li     -3.605122      3.282303     -0.894972
  F      -1.575047      6.037696     -0.456069
  P      -2.187095      4.680346     -0.006128
  O      -1.819859      3.552204     -0.907194
  O      -3.677665      4.728443      0.128693
  F      -1.496216      4.559382      1.387233
6
Coordinates from ORCA-job input E -699.256093823044
  Li     -3.632969      3.250151     -1.087639
  F      -1.594037      6.025651     -0.496039
  P      -2.184112      4.678029      0.031901
  O      -1.839334      3.519392     -0.842037
  O      -3.665787      4.752051      0.237781
  F      -1.444765      4.615100      1.407596
6
Coordinates from ORCA-job input E -699.257260353855
  Li     -3.633615      3.195723     -0.993901
  F      -1.567465      6.032856     -0.452623
  P      -2.195126      4.689344      0.019172
  O      -1.824985      3.558288     -0.892764
  O      -3.674373      4.785163      0.180998
  F      -1.465440      4.579002      1.390681
6
Coordinates from ORCA-job input E -699.257015078134
  Li     -3.638378      3.289473     -1.003018
  F      -1.597870      6.006633     -0.466963
  P      -2.199060      4.671649      0.029705
  O      -1.798979      3.535125     -0.866061
  O      -3.678250      4.733573      0.174586
  F      -1.448467      4.603922      1.383314
6
Coordinates from ORCA-job input E -699.257617507106
  Li     -3.655414      3.246075     -0.959857
  F      -1.583493      6.035692     -0.461562
  P      -2.181144      4.674870      0.009528
  O      -1.792069      3.554413     -0.894772
  O      -3.668347      4.753237      0.160054
  F      -1.480537      4.576087      1.398172
6
Coordinates from ORCA-job input E -699.257620525480
  Li     -3.652077      3.237010     -1.015931
  F      -1.585949      6.026064     -0.468555
  P      -2.188634      4.678572      0.024069
  O      -1.805601      3.543596     -0.873591
  O      -3.670253      4.760898      0.189947
  F      -1.458491      4.594236      1.395624
6
Coordinates from ORCA-job input E -699.257760201343
  Li     -3.656589      3.247265     -0.990160
  F      -1.587161      6.027887     -0.465215
  P      -2.186027      4.675995      0.018412
  O      -1.794323      3.547487     -0.881179
  O      -3.669859      4.754105      0.174714
  F      -1.467045      4.587636      1.394991
6
Coordinates from ORCA-job input E -699.257766904208
  Li     -3.659322      3.249753     -0.988613
  F      -1.588423      6.028072     -0.465688
  P      -2.184922      4.675337      0.017860
  O      -1.791096      3.547442     -0.880927
  O      -3.669280      4.752443      0.173667
  F      -1.467962      4.587328      1.395264
6
Coordinates from ORCA-job input E -699.257769274756
  Li     -3.661469      3.250414     -0.989341
  F      -1.589333      6.027964     -0.466131
  P      -2.184270      4.675216      0.017940
  O      -1.789099      3.547350     -0.880099
  O      -3.668888      4.752021      0.173863
  F      -1.467944      4.587409      1.395330
6
Coordinates from ORCA-job input E -699.257769452190
  Li     -3.661812      3.250252     -0.989667
  F      -1.589457      6.027930     -0.466140
  P      -2.184151      4.675323      0.018019
  O      -1.788919      3.547343     -0.879887
  O      -3.668845      4.752101      0.173940
  F      -1.467819      4.587426      1.395299
6
Coordinates from ORCA-job input E -699.257769504496
  Li     -3.661843      3.250142     -0.989688
  F      -1.589427      6.027951     -0.466070
  P      -2.184137      4.675388      0.018030
  O      -1.788992      3.547359     -0.879853
  O      -3.668853      4.752113      0.173870
  F      -1.467752      4.587423      1.395274
