! Opt B3LYP def2-TZVP TightSCF TightOpt D3BJ RIJCOSX

%maxcore 5000

%pal
nprocs 32
end

* xyz 0 1
O         -0.01810        1.11950       -0.11210
O         -0.01830       -1.11960        0.11150
O          1.98220       -0.00010        0.00040
C         -1.35290        0.72760        0.17230
C         -1.35320       -0.72740       -0.17180
C          0.76030       -0.00010       -0.00030
H         -2.06510        1.30160       -0.42630
H         -1.54830        0.90660        1.23480
H         -2.06510       -1.30120        0.42740
H         -1.54950       -0.90630       -1.23420
*
