10
Coordinates from ORCA-job EC E -342.385924397934
  O           0.00733284350875      1.11399078918341      0.00204537028447
  O           0.00709557691569     -1.11404130992094     -0.00197593164161
  O           1.97127960243914     -0.00023543378367     -0.00028662719366
  C          -1.36676765285451      0.74454086218088      0.17438887885103
  C          -1.36701136805709     -0.74427550292040     -0.17382652008983
  C           0.78448654550527     -0.00011297375654     -0.00011778161346
  H          -1.97810858944441      1.34840394166325     -0.49253595022678
  H          -1.65374303169424      0.93424113307576      1.21032672554946
  H          -1.97820851117037     -1.34799639213052      0.49335065664698
  H          -1.65435541514824     -0.93391511359124     -1.20966882056660
