6
Coordinates from ORCA-job input E -699.238686835412
  Li     -3.057369      2.409968     -1.727231
  F      -1.475175      5.849384     -0.631146
  P      -2.388356      4.857659      0.182415
  O      -2.480699      3.601795     -0.619566
  O      -3.576813      5.555709      0.689745
  F      -1.382593      4.565861      1.357345
6
Coordinates from ORCA-job input E -699.239567137710
  Li     -3.054504      2.420491     -1.720754
  F      -1.474565      5.842329     -0.638130
  P      -2.389428      4.864008      0.188486
  O      -2.478743      3.603821     -0.618454
  O      -3.583885      5.550701      0.685373
  F      -1.379878      4.559025      1.355042
6
Coordinates from ORCA-job input E -699.240471944188
  Li     -3.050277      2.445588     -1.702645
  F      -1.472084      5.829458     -0.648141
  P      -2.391242      4.875390      0.198190
  O      -2.474053      3.604975     -0.619024
  O      -3.597410      5.537422      0.675156
  F      -1.375938      4.547542      1.348027
6
Coordinates from ORCA-job input E -699.240621878836
  Li     -3.051465      2.451651     -1.696345
  F      -1.470869      5.829760     -0.646248
  P      -2.390982      4.874808      0.197034
  O      -2.472679      3.602612     -0.621712
  O      -3.598834      5.533627      0.672563
  F      -1.376175      4.547916      1.346271
6
Coordinates from ORCA-job input E -699.240828951881
  Li     -3.056115      2.464952     -1.680992
  F      -1.469041      5.833532     -0.639863
  P      -2.389126      4.869543      0.191116
  O      -2.468676      3.596408     -0.629622
  O      -3.599909      5.525372      0.666775
  F      -1.378137      4.550568      1.344149
6
Coordinates from ORCA-job input E -699.240850036440
  Li     -3.057339      2.466291     -1.678840
  F      -1.469696      5.834694     -0.639634
  P      -2.388342      4.867796      0.189631
  O      -2.467141      3.596623     -0.630812
  O      -3.599476      5.524588      0.666051
  F      -1.379010      4.550383      1.345168
6
Coordinates from ORCA-job input E -699.240862730311
  Li     -3.058887      2.467476     -1.676168
  F      -1.470562      5.835694     -0.640165
  P      -2.387567      4.866490      0.188430
  O      -2.464491      3.598121     -0.632088
  O      -3.599440      5.523572      0.665114
  F      -1.380056      4.549022      1.346439
6
Coordinates from ORCA-job input E -699.240868083777
  Li     -3.060298      2.467820     -1.674099
  F      -1.470604      5.836437     -0.640050
  P      -2.387299      4.866312      0.187922
  O      -2.462362      3.599289     -0.633315
  O      -3.599836      5.522540      0.664332
  F      -1.380605      4.547978      1.346773
6
Coordinates from ORCA-job input E -699.240883349934
  Li     -3.066134      2.467702     -1.666761
  F      -1.469842      5.839911     -0.638038
  P      -2.386354      4.866281      0.186190
  O      -2.454898      3.602963     -0.638560
  O      -3.601419      5.518549      0.661442
  F      -1.382356      4.544969      1.347289
6
Coordinates from ORCA-job input E -699.240909778950
  Li     -3.078252      2.465017     -1.652143
  F      -1.467254      5.848314     -0.631620
  P      -2.384404      4.866702      0.182548
  O      -2.441164      3.609925     -0.650490
  O      -3.604326      5.510669      0.655780
  F      -1.385603      4.539749      1.347488
6
Coordinates from ORCA-job input E -699.240957213110
  Li     -3.094872      2.458352     -1.630737
  F      -1.462507      5.861787     -0.619884
  P      -2.381620      4.867933      0.177081
  O      -2.424006      3.619983     -0.669407
  O      -3.608002      5.499966      0.648009
  F      -1.389996      4.532354      1.346501
6
Coordinates from ORCA-job input E -699.241014773169
  Li     -3.107477      2.451079     -1.616098
  F      -1.457965      5.872856     -0.608713
  P      -2.379212      4.869425      0.173127
  O      -2.413321      3.626193     -0.684071
  O      -3.610430      5.492214      0.642319
  F      -1.392598      4.528608      1.344998
6
Coordinates from ORCA-job input E -699.241075854030
  Li     -3.122729      2.443572     -1.599762
  F      -1.452718      5.886137     -0.594451
  P      -2.375270      4.870423      0.168217
  O      -2.402174      3.631396     -0.700792
  O      -3.613069      5.482397      0.634852
  F      -1.395044      4.526450      1.343499
6
Coordinates from ORCA-job input E -699.241134371669
  Li     -3.138045      2.433859     -1.571359
  F      -1.446831      5.902856     -0.577458
  P      -2.371286      4.871978      0.160688
  O      -2.388185      3.644475     -0.726114
  O      -3.616297      5.471331      0.625905
  F      -1.400360      4.515876      1.339901
6
Coordinates from ORCA-job input E -699.241171854777
  Li     -3.157498      2.419111     -1.521671
  F      -1.437968      5.928495     -0.549859
  P      -2.364877      4.874410      0.147684
  O      -2.370057      3.668185     -0.768384
  O      -3.621033      5.455038      0.611800
  F      -1.409571      4.495136      1.331992
6
Coordinates from ORCA-job input E -699.241181705285
  Li     -3.156256      2.426170     -1.534099
  F      -1.440911      5.922304     -0.557192
  P      -2.364976      4.872732      0.150728
  O      -2.371240      3.660868     -0.756645
  O      -3.620806      5.455989      0.613298
  F      -1.406815      4.502311      1.335471
6
Coordinates from ORCA-job input E -699.241191405979
  Li     -3.157450      2.430786     -1.535110
  F      -1.442161      5.920262     -0.559990
  P      -2.364777      4.871890      0.151215
  O      -2.368507      3.659918     -0.753605
  O      -3.621697      5.454224      0.612390
  F      -1.406413      4.503296      1.336664
6
Coordinates from ORCA-job input E -699.241208962954
  Li     -3.170535      2.445853     -1.537116
  F      -1.445034      5.919063     -0.562465
  P      -2.360008      4.867916      0.151178
  O      -2.356014      3.652656     -0.746665
  O      -3.625276      5.442302      0.604764
  F      -1.404138      4.512586      1.341867
6
Coordinates from ORCA-job input E -699.241239515323
  Li     -3.187556      2.460442     -1.529562
  F      -1.446399      5.921321     -0.561258
  P      -2.355746      4.864479      0.149217
  O      -2.337569      3.649477     -0.746644
  O      -3.629864      5.426906      0.594442
  F      -1.403869      4.517750      1.345369
6
Coordinates from ORCA-job input E -699.241696043999
  Li     -3.316733      2.605300     -1.460012
  F      -1.462237      5.934020     -0.555460
  P      -2.322619      4.830173      0.131182
  O      -2.193328      3.612659     -0.742998
  O      -3.660553      5.294937      0.507389
  F      -1.405534      4.563286      1.371461
6
Coordinates from ORCA-job input E -699.243582122039
  Li     -3.428709      2.792310     -1.322569
  F      -1.482110      5.949259     -0.541690
  P      -2.290097      4.787224      0.098267
  O      -2.048926      3.585102     -0.766775
  O      -3.684474      5.142792      0.398790
  F      -1.426689      4.583688      1.385540
6
Coordinates from ORCA-job input E -699.246825174545
  Li     -3.488593      2.941594     -1.213731
  F      -1.501639      5.957795     -0.533813
  P      -2.266196      4.753380      0.073236
  O      -1.964214      3.561184     -0.784980
  O      -3.693815      5.031667      0.318479
  F      -1.446547      4.594755      1.392372
6
Coordinates from ORCA-job input E -699.250205042784
  Li     -3.522023      3.050662     -1.133964
  F      -1.516732      5.964051     -0.528628
  P      -2.248384      4.729693      0.055992
  O      -1.915460      3.543127     -0.798088
  O      -3.696366      4.951429      0.259947
  F      -1.462039      4.601414      1.396304
