! Opt B3LYP def2-TZVP TightSCF TightOpt D3BJ RIJCOSX

%maxcore 5000

%pal
nprocs 32
end

* xyz 0 1
O         -1.10230       -0.69800        0.00020
O          1.10230       -0.69800        0.00020
O          0.00010        1.32640        0.00020
C          0.00000        0.10280        0.00050
C         -2.36110       -0.01660       -0.00060
C          2.36100       -0.01660       -0.00060
H         -2.45960        0.59780        0.89950
H         -3.15470       -0.76840       -0.00080
H         -2.45870        0.59750       -0.90100
H          3.15470       -0.76850       -0.00090
H          2.45960        0.59780        0.89950
H          2.45870        0.59740       -0.90090
*
