! B3LYP D3BJ 6-311++G(d,p) Opt TightSCF RIJCOSX

%maxcore 5000

%pal
nprocs 32
end

* xyz 0 1
H        1.7294124136     -1.3569281212     -2.3539049334                 
O       -0.1324712609      0.6111576681     -2.1496334557                 
C        2.1459055401     -1.2712357357     -1.3555867855                 
H        3.1143607504     -1.7150237253     -1.1495833262                 
H       -2.0899383856     -1.3815569816     -1.1049318433                 
S       -0.1187059689      0.1135859007     -0.6961407827                 
C        1.4856653467     -0.6310514327     -0.3896646980                 
C       -1.7110415810     -0.6586911211     -0.3895607473                 
O       -0.1177596334      1.4832568323      0.0007394269                 
H        1.9202516205     -0.5582210988      0.6019050930                 
C       -2.4293012193     -0.3643254402      0.6944783523                 
H       -3.3884914997     -0.8450444926      0.8573418698                 
H       -2.0717491024      0.3543788362      1.4247116555                 
*
