! Opt B3LYP D4 def2-TZVP TightSCF TightOpt CPCM(water)  RIJCOSX def2/J 

%maxcore 5000

%pal
nprocs 18
end

* xyz 0 1
Li      -3.4812380000      2.9479260000     -1.7065160000                 
F       -1.7589500000      5.8662810000     -0.7443140000                 
P       -2.5029660000      4.5608040000     -0.1723790000                 
O       -0.9682710000      3.7230480000      0.1776950000                 
O       -3.7487890000      5.5106850000      0.4144130000                 
F       -1.9007900000      4.2316310000      1.2826640000                 
*

