6
Coordinates from ORCA-job input E -698.906044736626
  Li     -3.481238      2.947926     -1.706516
  F      -1.758950      5.866281     -0.744314
  P      -2.502966      4.560804     -0.172379
  O      -0.968271      3.723048      0.177695
  O      -3.748789      5.510685      0.414413
  F      -1.900790      4.231631      1.282664
6
Coordinates from ORCA-job input E -698.929000578308
  Li     -3.503441      2.964347     -1.713853
  F      -1.716449      5.851152     -0.771481
  P      -2.532765      4.585651     -0.186048
  O      -0.951511      3.744866      0.187543
  O      -3.749511      5.455796      0.424949
  F      -1.907327      4.238564      1.310454
6
Coordinates from ORCA-job input E -698.951210848365
  Li     -3.536583      2.982025     -1.728384
  F      -1.691351      5.841324     -0.790750
  P      -2.579884      4.612610     -0.204651
  O      -0.932327      3.767053      0.216159
  O      -3.729179      5.397510      0.413851
  F      -1.891680      4.239852      1.345339
6
Coordinates from ORCA-job input E -698.959897497171
  Li     -3.554907      2.990318     -1.741032
  F      -1.681426      5.836792     -0.802309
  P      -2.612611      4.629446     -0.219145
  O      -0.918708      3.774921      0.241991
  O      -3.730447      5.377143      0.403833
  F      -1.862905      4.231755      1.368225
6
Coordinates from ORCA-job input E -698.968324301625
  Li     -3.572101      2.995290     -1.765559
  F      -1.670966      5.829955     -0.821712
  P      -2.658397      4.653882     -0.247115
  O      -0.896410      3.774138      0.283119
  O      -3.755933      5.372185      0.401092
  F      -1.807197      4.214925      1.401738
6
Coordinates from ORCA-job input E -698.973608343202
  Li     -3.578400      2.989929     -1.792765
  F      -1.674207      5.830084     -0.838855
  P      -2.693172      4.675278     -0.279693
  O      -0.877540      3.758118      0.316188
  O      -3.781172      5.386049      0.408730
  F      -1.756512      4.200916      1.437958
6
Coordinates from ORCA-job input E -698.977708892913
  Li     -3.578154      2.975396     -1.824951
  F      -1.692300      5.839064     -0.855983
  P      -2.726047      4.701718     -0.320648
  O      -0.867813      3.729615      0.344390
  O      -3.790875      5.405102      0.420800
  F      -1.705815      4.189481      1.487955
6
Coordinates from ORCA-job input E -698.981952928138
  Li     -3.566527      2.948470     -1.864699
  F      -1.721647      5.856829     -0.878852
  P      -2.763979      4.742952     -0.377456
  O      -0.879402      3.688584      0.373263
  O      -3.782085      5.424355      0.446470
  F      -1.647364      4.179186      1.552837
6
Coordinates from ORCA-job input E -698.986448722928
  Li     -3.538679      2.911845     -1.899181
  F      -1.753403      5.881895     -0.906796
  P      -2.799473      4.792671     -0.440231
  O      -0.924395      3.649118      0.394562
  O      -3.748482      5.436650      0.487808
  F      -1.596572      4.168196      1.615401
6
Coordinates from ORCA-job input E -698.991191213002
  Li     -3.502118      2.876863     -1.914353
  F      -1.777652      5.908355     -0.934659
  P      -2.818725      4.830059     -0.486423
  O      -0.993389      3.632879      0.396300
  O      -3.696814      5.439465      0.530728
  F      -1.572306      4.152753      1.659970
6
Coordinates from ORCA-job input E -698.997102842295
  Li     -3.467172      2.851101     -1.909105
  F      -1.787045      5.929370     -0.958211
  P      -2.816892      4.844501     -0.504989
  O      -1.070492      3.647966      0.376597
  O      -3.641410      5.432215      0.566521
  F      -1.577992      4.135222      1.680750
6
Coordinates from ORCA-job input E -699.006631340284
  Li     -3.420664      2.821669     -1.894824
  F      -1.790123      5.957346     -0.994079
  P      -2.812524      4.857644     -0.521487
  O      -1.187789      3.686827      0.346280
  O      -3.561917      5.410447      0.609924
  F      -1.587987      4.106442      1.705749
6
Coordinates from ORCA-job input E -699.016806785724
  Li     -3.386899      2.816371     -1.872101
  F      -1.751327      5.986231     -1.052003
  P      -2.811638      4.852808     -0.513007
  O      -1.328675      3.765399      0.323638
  O      -3.512287      5.353864      0.631080
  F      -1.570177      4.065702      1.733956
6
Coordinates from ORCA-job input E -699.015268160898
  Li     -3.270612      2.739541     -1.841902
  F      -1.810847      6.039284     -1.115194
  P      -2.793073      4.889767     -0.559280
  O      -1.540924      3.816374      0.283827
  O      -3.324430      5.372216      0.737920
  F      -1.621118      3.983192      1.746193
6
Coordinates from ORCA-job input E -699.025334726901
  Li     -3.311823      2.775782     -1.830805
  F      -1.762780      6.019444     -1.088363
  P      -2.777499      4.852782     -0.504753
  O      -1.472907      3.807308      0.263175
  O      -3.439470      5.368424      0.691008
  F      -1.596525      4.016634      1.721301
6
Coordinates from ORCA-job input E -699.029257736548
  Li     -3.303728      2.786117     -1.815832
  F      -1.744345      6.011034     -1.084020
  P      -2.760098      4.831655     -0.470458
  O      -1.496013      3.820377      0.241836
  O      -3.482558      5.380481      0.675629
  F      -1.574262      4.010711      1.704409
6
Coordinates from ORCA-job input E -699.033534647556
  Li     -3.281446      2.804601     -1.815124
  F      -1.741201      5.986829     -1.073591
  P      -2.755074      4.824151     -0.440578
  O      -1.522829      3.796744      0.249619
  O      -3.577660      5.444012      0.635410
  F      -1.482795      3.984038      1.695827
6
Coordinates from ORCA-job input E -699.035481512462
  Li     -3.256111      2.807191     -1.811668
  F      -1.743893      5.970517     -1.061776
  P      -2.749106      4.815372     -0.423828
  O      -1.589686      3.817327      0.247590
  O      -3.594554      5.468980      0.611133
  F      -1.427654      3.960989      1.690112
6
Coordinates from ORCA-job input E -699.037629556969
  Li     -3.239267      2.814208     -1.825833
  F      -1.759613      5.949879     -1.042966
  P      -2.760033      4.826959     -0.431395
  O      -1.632253      3.800797      0.273587
  O      -3.621947      5.504337      0.577629
  F      -1.347890      3.944195      1.700542
6
Coordinates from ORCA-job input E -699.039270865734
  Li     -3.227812      2.827517     -1.838097
  F      -1.767170      5.931239     -1.020253
  P      -2.760110      4.828752     -0.429985
  O      -1.685228      3.781853      0.290778
  O      -3.648940      5.525464      0.542696
  F      -1.271744      3.945549      1.706424
6
Coordinates from ORCA-job input E -699.041850592074
  Li     -3.223376      2.855996     -1.856796
  F      -1.760398      5.908739     -0.988784
  P      -2.757570      4.824637     -0.421303
  O      -1.763457      3.751138      0.318936
  O      -3.695489      5.535674      0.488481
  F      -1.160714      3.964191      1.711029
6
Coordinates from ORCA-job input E -699.044616931906
  Li     -3.228210      2.889514     -1.877445
  F      -1.736580      5.887971     -0.951708
  P      -2.752458      4.809367     -0.400767
  O      -1.844101      3.717429      0.343130
  O      -3.743881      5.532050      0.433058
  F      -1.055773      4.004043      1.705295
6
Coordinates from ORCA-job input E -699.046632545596
  Li     -3.238472      2.911948     -1.896877
  F      -1.704835      5.869966     -0.914527
  P      -2.749364      4.792293     -0.375011
  O      -1.897342      3.680215      0.344265
  O      -3.776213      5.525442      0.400598
  F      -0.994777      4.060510      1.693115
6
Coordinates from ORCA-job input E -699.048692127898
  Li     -3.234895      2.916357     -1.909693
  F      -1.675641      5.847775     -0.872232
  P      -2.747528      4.781671     -0.341530
  O      -1.953490      3.653264      0.323526
  O      -3.802346      5.531085      0.379728
  F      -0.947104      4.110223      1.671764
6
Coordinates from ORCA-job input E -699.055801471767
  Li     -3.231223      2.900104     -1.936371
  F      -1.598561      5.800717     -0.779029
  P      -2.748525      4.777919     -0.264340
  O      -2.038885      3.565667      0.234375
  O      -3.838229      5.548409      0.376093
  F      -0.905581      4.247558      1.620836
6
Coordinates from ORCA-job input E -699.066954650477
  Li     -3.205627      2.869126     -1.938994
  F      -1.569074      5.777955     -0.716084
  P      -2.732286      4.780370     -0.212503
  O      -2.133426      3.523482      0.148377
  O      -3.835531      5.563144      0.386022
  F      -0.885060      4.326298      1.584745
6
Coordinates from ORCA-job input E -699.080146391965
  Li     -3.204393      2.855415     -1.931900
  F      -1.550705      5.776815     -0.693829
  P      -2.717808      4.797771     -0.192239
  O      -2.152025      3.452652      0.086026
  O      -3.823801      5.572632      0.409306
  F      -0.912272      4.385089      1.574199
6
Coordinates from ORCA-job input E -699.093827884092
  Li     -3.170669      2.832392     -1.893848
  F      -1.568593      5.786004     -0.694325
  P      -2.702018      4.823777     -0.178165
  O      -2.185492      3.437220      0.023495
  O      -3.806216      5.585326      0.423542
  F      -0.928017      4.375656      1.570863
6
Coordinates from ORCA-job input E -699.115316493332
  Li     -3.127125      2.796404     -1.840170
  F      -1.575564      5.798087     -0.688713
  P      -2.680126      4.853226     -0.153084
  O      -2.236662      3.416240     -0.076540
  O      -3.786775      5.600194      0.449188
  F      -0.954752      4.376224      1.560881
6
Coordinates from ORCA-job input E -699.146498444431
  Li     -3.076190      2.741693     -1.770333
  F      -1.567037      5.809557     -0.672107
  P      -2.647583      4.880486     -0.110858
  O      -2.310546      3.395517     -0.229690
  O      -3.757026      5.613169      0.492173
  F      -1.002622      4.399953      1.542379
6
Coordinates from ORCA-job input E -699.178195804111
  Li     -2.968332      2.647065     -1.626042
  F      -1.571633      5.830921     -0.699867
  P      -2.587849      4.907097     -0.033618
  O      -2.438501      3.478787     -0.468541
  O      -3.697665      5.608654      0.558716
  F      -1.097024      4.367851      1.520915
6
Coordinates from ORCA-job input E -699.215754912384
  Li     -3.025213      2.563857     -1.733354
  F      -1.522790      5.790688     -0.661703
  P      -2.537176      4.864098      0.047186
  O      -2.476539      3.482827     -0.551795
  O      -3.643894      5.584153      0.619556
  F      -1.155392      4.554752      1.531673
6
Coordinates from ORCA-job input E -699.243460853865
  Li     -3.050653      2.469477     -1.807909
  F      -1.543476      5.766474     -0.690509
  P      -2.463492      4.828852      0.125532
  O      -2.485566      3.569448     -0.596092
  O      -3.578323      5.581976      0.668664
  F      -1.239494      4.624147      1.551878
6
Coordinates from ORCA-job input E -699.255771532918
  Li     -3.096206      2.423253     -1.872662
  F      -1.534293      5.745978     -0.650312
  P      -2.405252      4.792644      0.179012
  O      -2.475290      3.531803     -0.663418
  O      -3.519210      5.588318      0.732110
  F      -1.330754      4.758379      1.526834
6
Coordinates from ORCA-job input E -699.264071785693
  Li     -3.106750      2.429973     -1.856000
  F      -1.542286      5.755613     -0.686492
  P      -2.380836      4.791866      0.205061
  O      -2.441289      3.561367     -0.647105
  O      -3.512282      5.575324      0.727962
  F      -1.377560      4.726232      1.508137
6
Coordinates from ORCA-job input E -699.272846098431
  Li     -3.117095      2.464243     -1.796644
  F      -1.522138      5.801879     -0.665187
  P      -2.367375      4.802007      0.221400
  O      -2.423105      3.574476     -0.596432
  O      -3.567684      5.543398      0.656047
  F      -1.363607      4.654373      1.432378
6
Coordinates from ORCA-job input E -699.275156364492
  Li     -3.134401      2.503963     -1.748008
  F      -1.507137      5.828690     -0.674966
  P      -2.379984      4.820489      0.199447
  O      -2.366466      3.554318     -0.577721
  O      -3.589397      5.523490      0.645543
  F      -1.383618      4.609425      1.407267
6
Coordinates from ORCA-job input E -699.275372415107
  Li     -3.130282      2.510345     -1.736391
  F      -1.484197      5.836007     -0.621750
  P      -2.382864      4.821158      0.200043
  O      -2.402196      3.537616     -0.572028
  O      -3.607743      5.507193      0.618018
  F      -1.353722      4.628056      1.363671
6
Coordinates from ORCA-job input E -699.275882634873
  Li     -3.131364      2.504205     -1.739999
  F      -1.497398      5.832966     -0.642374
  P      -2.380396      4.824885      0.193649
  O      -2.383867      3.543513     -0.576622
  O      -3.596642      5.518146      0.634683
  F      -1.371337      4.616659      1.382226
6
Coordinates from ORCA-job input E -699.275987940102
  Li     -3.127379      2.499441     -1.739395
  F      -1.496241      5.832151     -0.644863
  P      -2.380277      4.827398      0.191367
  O      -2.388788      3.547904     -0.580578
  O      -3.593606      5.518359      0.640576
  F      -1.374714      4.615122      1.384455
6
Coordinates from ORCA-job input E -699.276246192564
  Li     -3.113027      2.477620     -1.734843
  F      -1.487113      5.834501     -0.645419
  P      -2.377421      4.838355      0.183323
  O      -2.411220      3.564462     -0.593325
  O      -3.588225      5.518359      0.658510
  F      -1.383998      4.607079      1.383319
6
Coordinates from ORCA-job input E -699.276307807830
  Li     -3.105659      2.465923     -1.732456
  F      -1.479512      5.838528     -0.641296
  P      -2.377290      4.843309      0.181026
  O      -2.426989      3.572222     -0.597760
  O      -3.590088      5.517681      0.662284
  F      -1.381467      4.602712      1.379765
6
Coordinates from ORCA-job input E -699.276329420038
  Li     -3.103032      2.457371     -1.731407
  F      -1.475382      5.842649     -0.637778
  P      -2.375936      4.845788      0.181443
  O      -2.433532      3.575845     -0.600737
  O      -3.590003      5.518336      0.664915
  F      -1.383120      4.600386      1.375126
6
Coordinates from ORCA-job input E -699.276343448056
  Li     -3.101590      2.453723     -1.731555
  F      -1.474970      5.844924     -0.635518
  P      -2.376804      4.846595      0.181634
  O      -2.436361      3.576669     -0.600887
  O      -3.590651      5.520551      0.664116
  F      -1.380629      4.597915      1.373773
6
Coordinates from ORCA-job input E -699.276361356962
  Li     -3.097380      2.445420     -1.732013
  F      -1.475282      5.848338     -0.633066
  P      -2.378455      4.848342      0.182083
  O      -2.441546      3.579389     -0.602743
  O      -3.589072      5.526174      0.665667
  F      -1.379268      4.592713      1.371636
6
Coordinates from ORCA-job input E -699.276376014619
  Li     -3.089652      2.433987     -1.732165
  F      -1.475773      5.851231     -0.631279
  P      -2.380611      4.851000      0.182242
  O      -2.449722      3.584381     -0.606572
  O      -3.585581      5.534150      0.670535
  F      -1.379665      4.585626      1.368803
6
Coordinates from ORCA-job input E -699.276386459062
  Li     -3.081010      2.424996     -1.731573
  F      -1.476072      5.852045     -0.630897
  P      -2.382841      4.853252      0.182285
  O      -2.457981      3.589417     -0.610520
  O      -3.582141      5.541261      0.676326
  F      -1.380959      4.579404      1.365942
6
Coordinates from ORCA-job input E -699.276396156926
  Li     -3.070242      2.416923     -1.730074
  F      -1.476085      5.851284     -0.631132
  P      -2.385458      4.855490      0.182276
  O      -2.467960      3.595200     -0.614912
  O      -3.578862      5.548632      0.683132
  F      -1.382397      4.572846      1.362273
6
Coordinates from ORCA-job input E -699.276401382976
  Li     -3.061616      2.412102     -1.728338
  F      -1.475626      5.849921     -0.631332
  P      -2.387401      4.856955      0.182342
  O      -2.476268      3.599639     -0.618093
  O      -3.577222      5.553555      0.687893
  F      -1.382871      4.568203      1.359090
6
Coordinates from ORCA-job input E -699.276402552120
  Li     -3.057369      2.409968     -1.727231
  F      -1.475175      5.849384     -0.631146
  P      -2.388356      4.857659      0.182415
  O      -2.480699      3.601795     -0.619566
  O      -3.576813      5.555709      0.689745
  F      -1.382593      4.565861      1.357345
